Version 4
SHEET 1 888 680
WIRE -96 -288 -512 -288
WIRE -80 -288 -96 -288
WIRE 192 -288 176 -288
WIRE 288 -288 192 -288
WIRE 608 -288 352 -288
WIRE 608 -256 608 -288
WIRE -512 -160 -512 -208
WIRE -80 -128 -80 -208
WIRE -80 -112 -80 -128
WIRE 176 -112 176 -208
WIRE 608 -112 608 -176
WIRE -400 -96 -448 -96
WIRE -288 -96 -336 -96
WIRE -160 -96 -208 -96
WIRE -400 -80 -400 -96
WIRE -336 -80 -336 -96
WIRE -160 -16 -160 -96
WIRE -528 96 -544 96
WIRE -400 96 -400 64
WIRE -400 96 -448 96
WIRE -336 112 -336 64
WIRE -80 160 -80 16
WIRE -336 240 -336 192
FLAG 176 -112 0
FLAG 608 -112 0
FLAG -80 160 0
FLAG -512 -160 0
FLAG 608 -288 Vout
FLAG -96 -288 VL1
FLAG 192 -288 VL2
FLAG -544 96 0
FLAG -448 -96 0
FLAG -336 240 0
FLAG -160 -96 Vg
FLAG -80 -128 Vs
SYMBOL ind2 -96 -304 R0
SYMATTR InstName L1
SYMATTR Value 3.24µ
SYMBOL ind2 192 -192 R180
WINDOW 0 36 80 Left 2
WINDOW 3 39 54 Left 2
SYMATTR InstName L2
SYMATTR Value 1.5µ
SYMBOL voltage -512 -304 R0
WINDOW 123 0 0 Left 0
WINDOW 39 24 44 Left 2
SYMATTR InstName V1
SYMATTR Value {Vin}
SYMBOL schottky 288 -272 R270
WINDOW 0 32 32 VTop 2
WINDOW 3 0 32 VBottom 2
SYMATTR InstName D1
SYMATTR Value MBR0530L
SYMATTR Description Diode
SYMATTR Type diode
SYMBOL res 592 -272 R0
SYMATTR InstName R1
SYMATTR Value 5
SYMBOL EPCGaN -160 -16 R0
SYMATTR InstName U1
SYMATTR Value EPC2302
SYMBOL voltage -432 96 R90
WINDOW 0 -32 56 VBottom 2
WINDOW 3 32 56 VTop 2
WINDOW 123 0 0 Left 0
WINDOW 39 0 0 Left 0
SYMATTR InstName V2
SYMATTR Value 12
SYMBOL voltage -336 96 R0
WINDOW 123 0 0 Left 0
WINDOW 39 0 0 Left 0
WINDOW 3 19 115 Left 2
SYMATTR Value PULSE(0 6 0 10n 10n {D/fs} {1/fs})
SYMATTR InstName V3
SYMBOL AutoGenerated\\IR4427 -368 -16 R90
SYMATTR InstName U3
SYMBOL res -192 -112 R90
WINDOW 0 0 56 VBottom 2
WINDOW 3 32 56 VTop 2
SYMATTR InstName R2
SYMATTR Value 4
TEXT 8 -208 Left 2 !K L1 L2 0.95
TEXT -496 -184 Left 2 !.param Vin = 12
TEXT 200 104 Left 2 !.tran 140u startup
TEXT 200 128 Left 2 !.param fs=1000k
TEXT 200 152 Left 2 !.param D=0.45
TEXT -488 -312 Left 2 ;KTF500B156M55NHT00
TEXT -72 -336 Left 2 ;EFD10/5/3-3F46-S
TEXT 664 -216 Left 2 ;WW3FT5R00
