Version 4
SHEET 1 880 680
WIRE -352 -288 -592 -288
WIRE -96 -288 -352 -288
WIRE -80 -288 -96 -288
WIRE 192 -288 176 -288
WIRE 256 -288 192 -288
WIRE 288 -288 256 -288
WIRE 368 -288 352 -288
WIRE 416 -288 368 -288
WIRE 608 -288 416 -288
WIRE 416 -256 416 -288
WIRE 608 -256 608 -288
WIRE 256 -208 256 -288
WIRE -592 -160 -592 -208
WIRE -352 -160 -352 -224
WIRE -80 -128 -80 -208
WIRE 64 -128 -80 -128
WIRE -80 -112 -80 -128
WIRE 64 -112 64 -128
WIRE 176 -112 176 -208
WIRE 416 -112 416 -192
WIRE 608 -112 608 -176
WIRE -384 -96 -592 -96
WIRE -272 -96 -320 -96
WIRE -160 -96 -192 -96
WIRE -384 -80 -384 -96
WIRE -320 -80 -320 -96
WIRE 368 -64 368 -288
WIRE 368 -64 256 -64
WIRE -160 -16 -160 -96
WIRE -80 80 -80 16
WIRE 64 80 64 32
WIRE 64 80 -80 80
WIRE -624 96 -656 96
WIRE -384 96 -384 64
WIRE -384 96 -544 96
WIRE -320 112 -320 64
WIRE -320 112 -352 112
WIRE -80 160 -80 80
WIRE -352 176 -352 112
WIRE -352 304 -352 256
FLAG 176 -112 0
FLAG 416 -112 0
FLAG 608 -112 0
FLAG -80 160 0
FLAG -592 -160 0
FLAG 608 -288 Vout
FLAG -96 -288 VL1
FLAG 192 -288 VL2
FLAG -352 -160 0
FLAG -656 96 0
FLAG -592 -96 0
FLAG -352 304 0
FLAG -160 -96 Vg
FLAG -80 -128 Vs
SYMBOL ind2 -96 -304 R0
SYMATTR InstName L1
SYMATTR Value 1µ
SYMBOL ind2 192 -192 R180
WINDOW 0 36 80 Left 2
WINDOW 3 39 54 Left 2
SYMATTR InstName L2
SYMATTR Value 0.2µ
SYMBOL voltage -592 -304 R0
WINDOW 123 0 0 Left 0
WINDOW 39 24 44 Left 2
SYMATTR InstName V1
SYMATTR Value {Vin}
SYMBOL schottky 288 -272 R270
WINDOW 0 32 32 VTop 2
WINDOW 3 0 32 VBottom 2
SYMATTR InstName D1
SYMATTR Value MBR0530L
SYMATTR Description Diode
SYMATTR Type diode
SYMBOL cap 400 -256 R0
SYMATTR InstName Cout
SYMATTR Value 50µ
SYMBOL res 592 -272 R0
SYMATTR InstName R1
SYMATTR Value 5
SYMBOL EPCGaN -160 -16 R0
SYMATTR InstName U1
SYMATTR Value EPC2302
SYMBOL cap -368 -288 R0
SYMATTR InstName Cin
SYMATTR Value 15µ
SYMBOL voltage -528 96 R90
WINDOW 0 -32 56 VBottom 2
WINDOW 3 32 56 VTop 2
WINDOW 123 0 0 Left 0
WINDOW 39 0 0 Left 0
SYMATTR InstName V2
SYMATTR Value 12
SYMBOL voltage -352 160 R0
WINDOW 123 0 0 Left 0
WINDOW 39 0 0 Left 0
SYMATTR InstName V3
SYMATTR Value PULSE(0 6 0 10n 10n {D/fs} {1/fs})
SYMBOL AutoGenerated\\IR4427 -352 -16 R90
SYMATTR InstName U3
SYMBOL res -176 -112 R90
WINDOW 0 0 56 VBottom 2
WINDOW 3 32 56 VTop 2
SYMATTR InstName R2
SYMATTR Value 4
SYMBOL cap 48 -112 R0
SYMATTR InstName C1
SYMATTR Value 15n
SYMBOL res 48 -64 R0
SYMATTR InstName R3
SYMATTR Value 3
SYMBOL res 240 -224 R0
SYMATTR InstName R4
SYMATTR Value 1.8
SYMBOL cap 240 -128 R0
SYMATTR InstName C2
SYMATTR Value 1n
TEXT 8 -208 Left 2 !K L1 L2 0.95
TEXT -568 -176 Left 2 !.param Vin = 12
TEXT -296 352 Left 2 !.tran 1000u startup
TEXT -296 384 Left 2 !.param fs=1000k
TEXT -296 408 Left 2 !.param D=0.5
TEXT -488 -312 Left 2 ;KTF500B156M55NHT00
TEXT -72 -336 Left 2 ;EFD10/5/3-3F46-S
TEXT 664 -216 Left 2 ;WW3FT5R00
TEXT 312 -176 Left 2 ;A768EB476M1VLAE042
