Version 4
SHEET 1 888 680
WIRE -400 -288 -560 -288
WIRE -304 -288 -400 -288
WIRE -240 -288 -304 -288
WIRE -96 -288 -240 -288
WIRE -80 -288 -96 -288
WIRE 192 -288 176 -288
WIRE 240 -288 192 -288
WIRE 288 -288 240 -288
WIRE 400 -288 352 -288
WIRE 432 -288 400 -288
WIRE 496 -288 432 -288
WIRE 496 -256 496 -288
WIRE 432 -224 432 -240
WIRE -304 -192 -304 -224
WIRE -272 -192 -304 -192
WIRE -240 -192 -240 -208
WIRE -240 -192 -272 -192
WIRE 240 -192 240 -288
WIRE 256 -192 240 -192
WIRE 400 -192 400 -288
WIRE -560 -160 -560 -208
WIRE -80 -128 -80 -208
WIRE -80 -128 -272 -128
WIRE 176 -112 176 -208
WIRE 432 -112 432 -224
WIRE 496 -112 496 -176
WIRE -336 -80 -384 -80
WIRE -160 -80 -272 -80
WIRE -80 -80 -80 -128
WIRE 32 -80 -80 -80
WIRE -336 -64 -336 -80
WIRE -272 -64 -272 -80
WIRE 32 -64 32 -80
WIRE -160 -48 -160 -80
WIRE -80 -48 -80 -80
WIRE -80 -16 -80 -48
WIRE -160 80 -160 32
WIRE -80 112 -80 16
WIRE 32 112 32 80
WIRE 32 112 -80 112
WIRE -336 144 -336 80
WIRE -80 160 -80 112
WIRE -416 192 -416 144
WIRE -272 192 -272 160
FLAG 176 -112 0
FLAG 496 -112 0
FLAG -80 160 0
FLAG -560 -160 0
FLAG 496 -288 Vout
FLAG -96 -288 VL1
FLAG 192 -288 VL2
FLAG -416 192 0
FLAG -384 -80 0
FLAG -272 192 0
FLAG -160 -80 Vg
FLAG -80 -48 Vs
FLAG 432 -112 0
FLAG -400 -224 0
SYMBOL ind2 -96 -304 R0
SYMATTR InstName L1
SYMATTR Value 4µ
SYMBOL ind2 192 -192 R180
WINDOW 0 36 80 Left 2
WINDOW 3 39 54 Left 2
SYMATTR InstName L2
SYMATTR Value 0.5µ
SYMBOL voltage -560 -304 R0
WINDOW 123 0 0 Left 0
WINDOW 39 24 44 Left 2
SYMATTR InstName V1
SYMATTR Value {Vin}
SYMBOL diode 288 -272 R270
WINDOW 0 32 32 VTop 2
WINDOW 3 0 32 VBottom 2
SYMATTR InstName D1
SYMATTR Value VS-E5PX3012
SYMBOL res 480 -272 R0
SYMATTR InstName R1
SYMATTR Value 5
SYMBOL EPCGaN -160 80 R0
SYMATTR InstName U1
SYMATTR Value EPC2302
SYMBOL voltage -320 144 R90
WINDOW 0 -32 56 VBottom 2
WINDOW 3 32 56 VTop 2
WINDOW 123 0 0 Left 0
WINDOW 39 0 0 Left 0
SYMATTR InstName V2
SYMATTR Value 12
SYMBOL voltage -272 64 R0
WINDOW 123 0 0 Left 0
WINDOW 39 0 0 Left 0
WINDOW 3 19 115 Left 2
WINDOW 0 32 29 Left 2
SYMATTR Value PULSE(0 6 0 45n 45n {D/fs} {1/fs})
SYMATTR InstName V3
SYMBOL IR4427 -304 0 R90
SYMATTR InstName U3
SYMBOL cap 416 -288 R0
SYMATTR InstName C1
SYMATTR Value 50µ
SYMBOL res 352 -208 R90
WINDOW 0 0 56 VBottom 2
WINDOW 3 32 56 VTop 2
SYMATTR InstName R3
SYMATTR Value 10k
SYMBOL cap 400 -208 R90
WINDOW 0 0 32 VBottom 2
WINDOW 3 32 32 VTop 2
SYMATTR InstName C2
SYMATTR Value 25n
SYMBOL cap 16 -64 R0
SYMATTR InstName C3
SYMATTR Value 10n
SYMBOL res 16 -16 R0
SYMATTR InstName R4
SYMATTR Value 10
SYMBOL res -256 -304 R0
SYMATTR InstName R5
SYMATTR Value 1k
SYMBOL cap -320 -288 R0
SYMATTR InstName C4
SYMATTR Value 100p
SYMBOL diode -256 -128 R180
WINDOW 0 24 64 Left 2
WINDOW 3 -169 30 Left 2
SYMATTR InstName D2
SYMATTR Value VS-E5PX3012
SYMBOL res -176 -64 R0
SYMATTR InstName R2
SYMATTR Value 25
SYMBOL cap -416 -288 R0
SYMATTR InstName C5
SYMATTR Value 15µ
TEXT -24 -200 Left 2 !K L1 L2 0.95
TEXT -544 -184 Left 2 !.param Vin = 12
TEXT 200 104 Left 2 !.tran 300u startup
TEXT 200 128 Left 2 !.param fs=1000k
TEXT 200 152 Left 2 !.param D=0.41
TEXT -32 -312 Left 2 ;Transformer
