Version 4
SHEET 1 880 680
WIRE -144 128 -288 128
WIRE 96 128 -64 128
WIRE 320 128 288 128
WIRE 352 128 320 128
WIRE 560 128 432 128
WIRE 448 192 288 192
WIRE -288 224 -288 208
WIRE 80 224 -288 224
WIRE 96 224 80 224
WIRE 112 224 96 224
WIRE 320 224 288 224
WIRE 448 224 448 192
WIRE 448 224 400 224
WIRE 320 240 320 224
WIRE 400 240 400 224
WIRE 448 256 448 224
WIRE 560 256 560 208
WIRE 560 256 448 256
WIRE 80 288 80 224
WIRE 560 288 560 256
WIRE 320 320 320 240
WIRE 400 320 400 240
WIRE 400 320 384 320
FLAG 560 288 0
FLAG 320 128 vout
IOPIN 320 128 Out
FLAG 80 288 0
SYMBOL Optos\\4N26 192 192 R0
SYMATTR InstName U1
SYMBOL voltage -288 112 R0
WINDOW 0 -63 76 Left 2
WINDOW 3 -63 104 Left 2
WINDOW 123 0 0 Left 0
WINDOW 39 0 0 Left 0
SYMATTR InstName V1
SYMATTR Value AC 1
SYMBOL voltage 560 112 R0
WINDOW 123 0 0 Left 0
WINDOW 39 0 0 Left 0
SYMATTR InstName V2
SYMATTR Value 5
SYMBOL res 448 112 R90
WINDOW 0 0 56 VBottom 2
WINDOW 3 32 56 VTop 2
SYMATTR InstName R1
SYMATTR Value 0.5k
SYMBOL res 416 224 R90
WINDOW 0 0 56 VBottom 2
WINDOW 3 32 56 VTop 2
SYMATTR InstName R2
SYMATTR Value 270k
SYMBOL cap 384 304 R90
WINDOW 0 0 32 VBottom 2
WINDOW 3 32 32 VTop 2
SYMATTR InstName C1
SYMATTR Value 470p
SYMBOL res -48 112 R90
WINDOW 0 0 56 VBottom 2
WINDOW 3 32 56 VTop 2
SYMATTR InstName R3
SYMATTR Value 300
TEXT -392 272 Left 2 !.param D = 0.5
TEXT -392 296 Left 2 !.param fs = 10k
TEXT -392 320 Left 2 !;tran 1m
TEXT -392 392 Left 2 ;PULSE(0 15 0 0.1n 0.1n {D/fs} {1/fs})
TEXT -392 344 Left 2 !.ac dec 1m 1 100000k
