Version 4
SHEET 1 3332 9636
WIRE -64 -144 -560 -144
WIRE 176 -144 16 -144
WIRE 384 -144 176 -144
WIRE 544 -144 384 -144
WIRE 544 -112 544 -144
WIRE -160 -96 -336 -96
WIRE -144 -96 -160 -96
WIRE -560 -80 -560 -144
WIRE -208 -80 -224 -80
WIRE 176 -80 176 -144
WIRE -336 -48 -336 -96
WIRE -144 -48 -144 -96
WIRE -144 -48 -160 -48
WIRE -224 0 -224 -80
WIRE -224 0 -272 0
WIRE -112 0 -160 0
WIRE 128 0 -32 0
WIRE -272 16 -272 0
WIRE -160 16 -160 0
WIRE 544 48 544 -32
WIRE -144 64 -160 64
WIRE -224 96 -224 0
WIRE -208 96 -224 96
WIRE -336 112 -336 32
WIRE -272 112 -272 96
WIRE -272 112 -336 112
WIRE -160 112 -272 112
WIRE -144 112 -144 64
WIRE -144 112 -160 112
WIRE 176 112 176 16
WIRE 176 112 -144 112
WIRE 176 144 176 112
WIRE 176 256 176 224
WIRE 240 256 176 256
WIRE 384 256 384 -144
WIRE 384 256 320 256
WIRE 176 320 176 256
WIRE 176 320 128 320
WIRE -224 336 -400 336
WIRE -208 336 -224 336
WIRE -400 352 -400 336
WIRE -272 352 -288 352
WIRE 176 352 176 320
WIRE -208 384 -208 336
WIRE -208 384 -224 384
WIRE -288 432 -288 352
WIRE -288 432 -336 432
WIRE -176 432 -224 432
WIRE 64 432 -96 432
WIRE 128 432 64 432
WIRE -336 448 -336 432
WIRE -224 448 -224 432
WIRE -208 496 -224 496
WIRE -288 528 -288 432
WIRE -272 528 -288 528
WIRE -400 544 -400 432
WIRE -336 544 -336 528
WIRE -336 544 -400 544
WIRE -224 544 -336 544
WIRE -208 544 -208 496
WIRE -208 544 -224 544
WIRE 176 544 176 448
WIRE 176 544 -208 544
WIRE -560 656 -560 0
WIRE 176 656 176 544
WIRE 176 656 -560 656
WIRE 544 656 544 112
WIRE 544 656 176 656
WIRE 176 688 176 656
FLAG 176 688 0
FLAG 64 432 gs
FLAG 128 320 Vsw
SYMBOL voltage -336 432 R0
WINDOW 0 -42 93 Left 2
WINDOW 3 -201 198 Left 2
WINDOW 123 0 0 Left 2
WINDOW 39 24 132 Left 2
SYMATTR InstName V2
SYMATTR Value PULSE(0 12 900n 10n 10n 1200n 2u)
SYMBOL voltage -560 -96 R0
WINDOW 123 0 0 Left 2
WINDOW 39 0 0 Left 2
SYMATTR InstName V3
SYMATTR Value 400
SYMBOL ind 336 240 R90
WINDOW 0 5 56 VBottom 2
WINDOW 3 32 56 VTop 2
SYMATTR InstName L1
SYMATTR Value 60.0µ
SYMATTR SpiceLine Rser=.1
SYMBOL voltage -336 -64 R0
WINDOW 0 -45 14 Left 2
WINDOW 3 -48 87 Left 2
WINDOW 123 0 0 Left 2
WINDOW 39 0 0 Left 2
SYMATTR InstName V4
SYMATTR Value 12
SYMBOL pmos4 -208 0 M180
WINDOW 3 57 68 Left 2
SYMATTR Value pmod
SYMATTR InstName M3
SYMATTR Value2 l=100u w=100u
SYMBOL nmos4 -208 16 R0
WINDOW 3 56 60 Left 2
SYMATTR Value nmod
SYMATTR InstName M4
SYMATTR Value2 l=100u w=2500u
SYMBOL ind 160 128 R0
SYMATTR InstName L2
SYMATTR Value 2nH
SYMATTR SpiceLine Rser=.05
SYMBOL res -16 -16 R90
WINDOW 0 0 56 VBottom 2
WINDOW 3 32 56 VTop 2
SYMATTR InstName R1
SYMATTR Value 5
SYMBOL voltage -272 0 R0
WINDOW 0 -42 93 Left 2
WINDOW 3 -201 198 Left 2
WINDOW 123 0 0 Left 2
WINDOW 39 24 132 Left 2
SYMATTR InstName V1
SYMATTR Value PULSE(12 0 1000n 10n 10n 1000n 2u)
SYMBOL voltage -400 336 R0
WINDOW 0 -45 14 Left 2
WINDOW 3 -48 87 Left 2
WINDOW 123 0 0 Left 2
WINDOW 39 0 0 Left 2
SYMATTR InstName V5
SYMATTR Value 12
SYMBOL pmos4 -272 432 M180
WINDOW 3 57 68 Left 2
SYMATTR Value pmod
SYMATTR InstName M1
SYMATTR Value2 l=100u w=100u
SYMBOL nmos4 -272 448 R0
WINDOW 3 56 60 Left 2
SYMATTR Value nmod
SYMATTR InstName M2
SYMATTR Value2 l=100u w=2500u
SYMBOL res -80 416 R90
WINDOW 0 0 56 VBottom 2
WINDOW 3 32 56 VTop 2
SYMATTR InstName R2
SYMATTR Value 5
SYMBOL mesfet 128 -80 R0
SYMATTR InstName x1
SYMATTR Value TP65H015G5WS
SYMATTR Prefix x
SYMBOL mesfet 128 352 R0
SYMATTR InstName x2
SYMATTR Value TP65H015G5WS
SYMATTR Prefix x
SYMBOL ind -80 -128 R270
WINDOW 0 32 56 VTop 2
WINDOW 3 5 56 VBottom 2
SYMATTR InstName L5
SYMATTR Value 20n
SYMBOL cap 528 48 R0
SYMATTR InstName C3
SYMATTR Value 20n
SYMBOL res 528 -128 R0
SYMATTR InstName R3
SYMATTR Value 10
TEXT 880 -120 Left 2 !.tran 0 10us 2us uic
TEXT 880 48 Left 2 !.model nmod nmos(vto=3 kp=0.015)\n.model pmod pmos(vto=-2 kp=0.010)
TEXT 880 240 Left 2 !.subckt  TP65H015G5WS 301 302 303\n* GROUP A: 301=D1, 302=G1, 303=S1\n*\n* NODE 000 - 099: RESERVED FOR CAP EMULATION\n* NODE 100 - 199: HEMT_A AND NMOS_A\n* NODE 300 - 399: PIN AND CONNECTION\n*\n* Part A: 101=drain A, 152=gate A, 199=source A  \n* HEMT_A: 101=drainHA, 102=gateHA, 103=sourceHA\n* NMOS_A: 151=drainMA, 152=gateMA, 153=sourceMA\n*\n*   beta version, MAY 28, 2020, By Feng Qi @ Transphorm\n*   ver 1.1, JUN 28, 2022, By Ken Shono @ Transphorm\n*     CGDA2 is deleted since node 325 no longer exist\n*     Bonding wire model is simplified according to ANSYS\n*************************************************************************\n*The model is an approximation of the device.\n*The model may not show the true device performance under all conditions.\n*The model only guarantees the accuracy of the key parameters (Ron, Ciss, \n*Coss, Crss, Eoss, Qoss, and Qrr) in the current data sheet.\n*\n*Please refer to the current datasheet for the most up to date specifications\n*of the device.\n*\n*Transphorm Inc. does not assume any liability arising from this use.\n*Transphorm Inc. reserves the right to change models without prior notice.\n*************************************************************************\n \n************************\n***   Part A Begin   ***\n************************\n* 101=drain A, 152=gate A, 199=source A\n \n**************************\n**  Connection A Begin  **\n \nLi1A 103 151 0.01nH\nLi2A 102 198 0.01nH \nRi2A 198 153 0.10   \nLi3A 153 197 0.20nH \nRi3A 197 199 0.002  \n \n**  Connection A End  **\n************************\n \n \n******************* \n**  HEMT_A Begin **\n* xxxx\n* 101=drainHA, 102=gateHA, 103=sourceHA\n \n \n** HEMT_A Body  **\n \nJ1A 104 102 103 MJ1A 14.3\n.model MJ1A NJF vto -22 beta 0.75 lambda 0.005 rs 0.001\n+ cgs 30PF cgd 50PF is=1f m=0.3\n \nJ2A 105 102 104 MJ2A 14.3\n.model MJ2A NJF vto -75 beta 0.75 lambda 0.005 \n+ cgs 20PF cgd 100PF is=1f m=0.35\n \nJ3A 101 102 105 MJ3A 14.3\n.model MJ3A NJF vto -210 beta 0.75 lambda 0.005 rd 0.001\n+ cgs 10PF cgd 270PF is=1f m=0.4\n \n \n**  HEMT_A Leakage Compensation  **\n \nDL1A 106 101 MDLA 14.3\nDL2A 106 103 MDLA 14.3\n.model MDLA D is=0.05uA cjo=0\n \n \n**  HEMT_A Cap Compensation  **\n \nCJA 101 103 10pF\n \n \n**  HEMT_A End  **\n******************\n \n \n********************\n**  NMOS_A Begin  **\n* xxxx\n* 151=drainMA, 152=gateMA, 153=sourceMA\n \nMA 159 157 158 158 MMA L=100u W=280u\n.MODEL MMA NMOS LEVEL=1 IS=1e-32\n+VTO=4.0 LAMBDA=0 KP=63\n+CGSO=1.50e-05 CGDO=1.25e-06\n \n \nDM1A 153 151 MDMA\n.MODEL MDMA D IS=2.76e-10 RS=0.002 N=1.2 BV=30\n+IBV=0.00025 EG=1.2 XTI=4 TT=4e-09\n+CJO=1e-10 VJ=0.82 M=0.5 FC=0.5\n \n \nRMA  153 151 1e+07\nRMDA 159 151 0.0001\nRMGA 152 157 2.50174\nRMSA 158 153 0.0005\n \n \nRMLA 155 160 1\nFM2A 157 159 VM2A -1\nVM2A 154 0 0\nEMA  160 0 159 157 1\nCMA  161 160 7.83603e-10\nFM1A 157 159 VM1A -1\nVM1A 161 156 0\nRMCA 156 160 1\n \nDM2A 154 155 MDM1A\n.MODEL MDM1A D IS=1e-32 N=50\n+CJO=3.05726e-10 VJ=3.40106 M=0.3 FC=1e-08\n \nDM3A 0 155 MDM2A\n.MODEL MDM2A D IS=1e-10 N=0.4 RS=3e-06\n \nDM4A 0 156 MDM3A\n.MODEL MDM3A D IS=1e-10 N=0.4\n \n**  NMOS_A End  **\n******************\n \n \n**  PartA Cap Compensation  **\n \nCGDA1 321 101 5p\n*CGDA2 325 101 5p\n \n*********************\n***   PartA End   ***\n*********************\n*********************\n \n \n \n********************************\n********************************\n***   Pin Connection Begin   ***\n********************************\n \n \n********************\n**  301=D1 Begin  **\n* from 101=drainA to 301=D1\n  \nL315 301 311 4.79n\nR315 301 311 2 \nR311 311 101 1.69m\n \n**  301=D1 End  **\n******************\n \n \n********************\n**  302=G1 Begin  **\n* from 152=GateA to 302=G1\n \nL320 302 321 6.11n\nR320 302 321 5 \nR321 321 152 6.48m\n*\n* internal ferrite bead bypassed\n* R325 321 326 163\n* L325 321 326 270n\n* C325 321 326 0.36p\n* R326 326 404 0.144\n*\n \n \n**  302=G1 End  **\n******************\n \n \n********************\n**  303=S1 Begin  **\n* from 199=sourceA to 303=S1\n \nL335 303 331 4.26n\nR335 303 331 2 \nR331 331 199 0.69m\n \n**  303=S1 End  **\n******************\n \n \n \n******************************\n***   Pin Connection End   ***\n******************************\n******************************\n \n \n.ends  TP65H015G5WS
